/*--------------------------------*- C++ -*----------------------------------*\
  =========                 |
  \\      /  F ield         | OpenFOAM: The Open Source CFD Toolbox
   \\    /   O peration     | Website:  https://openfoam.org
    \\  /    A nd           | Version:  7
     \\/     M anipulation  |
\*---------------------------------------------------------------------------*/
FoamFile
{
    version     2.0;
    format      ascii;
    class       dictionary;
    location    "constant";
    object      effectiveTransportProperties;
}
// * * * * * * * * * * * * * * * * * * * * * * * * * * * * * * * * * * * * * //

Deff            Deff [ 0 2 -1 0 0 0 0 ] ( 4.2051586 -8.9240807e-09 1.6059896e-21 -5.3621479e-07 4.2061692 -3.460873e-22 3.697382e-24 -4.8809964e-24 3.62783 );

DeffSymm        DeffII [ 0 2 -1 0 0 0 0 ] ( 5.3870786 -7.0225576e-07 1.6182094e-21 -7.0225576e-07 5.3868954 -3.614739e-22 1.6182094e-21 -3.614739e-22 3.62783 );

lambda          0.10139194;

CI              CI [ 0 1 0 0 0 0 0 ] ( 5.6002256e-19 8.4914377e-19 0 );

Ueff            Ueff [ 0 1 -1 0 0 0 0 ] ( 0.9992712 3.8886702e-06 3.3646672e-24 );


// ************************************************************************* //
